40 
(10,10) carbon nanotube structure generated by TubeASP. Author: R.G.A. Veiga, Universidade Federal de Uberlandia, Brazil. Corrections/updates: David Tomanek, MSU, 2007; Nicholas Frederick, MSU, 2012.
 C  6.7800         0.0000         0.0000         
 C  6.6318         1.4096         0.0000         
 C  5.4851         3.9852         0.0000         
 C  4.5367         5.0385         0.0000         
 C  2.0951         6.4482         0.0000         
 C  0.7087         6.7429         0.0000         
 C  -2.0951        6.4482         0.0000         
 C  -3.3900        5.8717         0.0000         
 C  -5.4851        3.9852         0.0000         
 C  -6.1938        2.7577         0.0000         
 C  -6.7800        0.0000         0.0000         
 C  -6.6318        -1.4096        0.0000         
 C  -5.4851        -3.9852        0.0000         
 C  -4.5367        -5.0385        0.0000         
 C  -2.0951        -6.4482        0.0000         
 C  -0.7087        -6.7429        0.0000         
 C  2.0951         -6.4482        0.0000         
 C  3.3900         -5.8717        0.0000         
 C  5.4851         -3.9852        0.0000         
 C  6.1938         -2.7577        0.0000         
 C  6.4482         2.0951         1.2298         
 C  5.8717         3.3900         1.2298         
 C  3.9852         5.4851         1.2298         
 C  2.7577         6.1938         1.2298         
 C  0.0000         6.7800         1.2298         
 C  -1.4096        6.6318         1.2298         
 C  -3.9852        5.4851         1.2298         
 C  -5.0385        4.5367         1.2298         
 C  -6.4482        2.0951         1.2298         
 C  -6.7429        0.7087         1.2298         
 C  -6.4482        -2.0951        1.2298         
 C  -5.8717        -3.3900        1.2298         
 C  -3.9852        -5.4851        1.2298         
 C  -2.7577        -6.1938        1.2298         
 C  -0.0000        -6.7800        1.2298         
 C  1.4096         -6.6318        1.2298         
 C  3.9852         -5.4851        1.2298         
 C  5.0385         -4.5367        1.2298         
 C  6.4482         -2.0951        1.2298         
 C  6.7429         -0.7087        1.2298         
