128
Atoms. Timestep: 88
C 6.67052 -0.749226 0
C 8.01603 0.0100914 0
C 7.97623 1.56693 0
C 6.59751 2.29869 0
C 9.3326 -0.830015 0
C 10.661 -0.0174914 0
C 10.6487 1.54038 0
C 9.31184 2.33013 0
C 11.9914 -0.838107 0
C 13.3236 -0.0236424 0
C 13.3194 1.53371 0
C 11.983 2.31767 0
C 14.6566 -0.841084 0
C 15.99 -0.0253266 0
C 15.99 1.53216 0
C 14.6544 2.3148 0
C 17.3234 -0.841084 0
C 18.6564 -0.0236424 0
C 18.6606 1.53371 0
C 17.3256 2.3148 0
C 19.9886 -0.838107 0
C 21.319 -0.0174914 0
C 21.3313 1.54038 0
C 19.997 2.31767 0
C 22.6474 -0.830015 0
C 23.964 0.0100914 0
C 24.0038 1.56693 0
C 22.6682 2.33013 0
C 25.3095 -0.749226 0
C 25.3825 2.29869 0
C 6.57482 3.86219 0
C 7.93311 4.6275 0
C 7.92211 6.1919 0
C 6.55271 6.93855 0
C 9.29053 3.87267 0
C 10.6298 4.64802 0
C 10.6202 6.19683 0
C 9.26964 6.96307 0
C 11.9734 3.87074 0
C 13.3118 4.64877 0
C 13.3075 6.20107 0
C 11.9625 6.97439 0
C 14.6517 3.86923 0
C 15.99 4.64923 0
C 15.99 6.20266 0
C 14.6483 6.98036 0
C 17.3283 3.86923 0
C 18.6682 4.64877 0
C 18.6725 6.20107 0
C 17.3317 6.98036 0
C 20.0066 3.87074 0
C 21.3502 4.64802 0
C 21.3598 6.19683 0
C 20.0175 6.97439 0
C 22.6895 3.87267 0
C 24.0469 4.6275 0
C 24.0579 6.1919 0
C 22.7104 6.96307 0
C 25.4052 3.86219 0
C 25.4273 6.93855 0
C 6.54725 8.50291 0
C 7.91042 9.26202 0
C 7.9055 10.8242 0
C 6.53229 11.5607 0
C 9.26532 8.5075 0
C 10.6095 9.28948 0
C 10.607 10.839 0
C 9.25447 11.5979 0
C 11.959 8.52473 0
C 13.3016 9.30621 0
C 13.2996 10.8586 0
C 11.9499 11.6252 0
C 14.647 8.53313 0
C 15.99 9.31179 0
C 15.99 10.8653 0
C 14.6435 11.6405 0
C 17.333 8.53313 0
C 18.6784 9.30621 0
C 18.6804 10.8586 0
C 17.3365 11.6405 0
C 20.021 8.52473 0
C 21.3705 9.28948 0
C 21.373 10.839 0
C 20.0301 11.6252 0
C 22.7147 8.5075 0
C 24.0696 9.26202 0
C 24.0745 10.8242 0
C 22.7255 11.5979 0
C 25.4328 8.50291 0
C 25.4477 11.5607 0
C 6.52316 13.1221 0
C 7.88717 13.878 0
C 7.87981 15.4344 0
C 6.53131 16.1926 0
C 9.24929 13.1406 0
C 10.59 13.9361 0
C 10.5787 15.4888 0
C 9.21533 16.2374 0
C 11.9454 13.1776 0
C 13.2898 13.964 0
C 13.2831 15.5183 0
C 11.923 16.2801 0
C 14.6417 13.1945 0
C 15.99 13.9725 0
C 15.99 15.5271 0
C 14.6342 16.2984 0
C 17.3383 13.1945 0
C 18.6902 13.964 0
C 18.6969 15.5183 0
C 17.3458 16.2984 0
C 20.0346 13.1776 0
C 21.39 13.9361 0
C 21.4013 15.4888 0
C 20.057 16.2801 0
C 22.7307 13.1406 0
C 24.0928 13.878 0
C 24.1002 15.4344 0
C 22.7647 16.2374 0
C 25.4568 13.1221 0
C 25.4487 16.1926 0
C 6.7855 17.7114 0
C 9.18556 17.7846 0
C 11.9066 17.8273 0
C 14.6292 17.8457 0
C 17.3508 17.8457 0
C 20.0734 17.8273 0
C 22.7944 17.7846 0
C 25.1945 17.7114 0
