128
Atoms. Timestep: 0
C 7.38 0 0
C 8.61 0.680928 0
C 8.61 2.1279 0
C 7.38 2.80883 0
C 9.84 0 0
C 11.07 0.680928 0
C 11.07 2.1279 0
C 9.84 2.80883 0
C 12.3 0 0
C 13.53 0.680928 0
C 13.53 2.1279 0
C 12.3 2.80883 0
C 14.76 0 0
C 15.99 0.680928 0
C 15.99 2.1279 0
C 14.76 2.80883 0
C 17.22 0 0
C 18.45 0.680928 0
C 18.45 2.1279 0
C 17.22 2.80883 0
C 19.68 0 0
C 20.91 0.680928 0
C 20.91 2.1279 0
C 19.68 2.80883 0
C 22.14 0 0
C 23.37 0.680928 0
C 23.37 2.1279 0
C 22.14 2.80883 0
C 24.6 0 0
C 24.6 2.80883 0
C 7.38 4.2558 0
C 8.61 4.93673 0
C 8.61 6.3837 0
C 7.38 7.06463 0
C 9.84 4.2558 0
C 11.07 4.93673 0
C 11.07 6.3837 0
C 9.84 7.06463 0
C 12.3 4.2558 0
C 13.53 4.93673 0
C 13.53 6.3837 0
C 12.3 7.06463 0
C 14.76 4.2558 0
C 15.99 4.93673 0
C 15.99 6.3837 0
C 14.76 7.06463 0
C 17.22 4.2558 0
C 18.45 4.93673 0
C 18.45 6.3837 0
C 17.22 7.06463 0
C 19.68 4.2558 0
C 20.91 4.93673 0
C 20.91 6.3837 0
C 19.68 7.06463 0
C 22.14 4.2558 0
C 23.37 4.93673 0
C 23.37 6.3837 0
C 22.14 7.06463 0
C 24.6 4.2558 0
C 24.6 7.06463 0
C 7.38 8.5116 0
C 8.61 9.19253 0
C 8.61 10.6395 0
C 7.38 11.3204 0
C 9.84 8.5116 0
C 11.07 9.19253 0
C 11.07 10.6395 0
C 9.84 11.3204 0
C 12.3 8.5116 0
C 13.53 9.19253 0
C 13.53 10.6395 0
C 12.3 11.3204 0
C 14.76 8.5116 0
C 15.99 9.19253 0
C 15.99 10.6395 0
C 14.76 11.3204 0
C 17.22 8.5116 0
C 18.45 9.19253 0
C 18.45 10.6395 0
C 17.22 11.3204 0
C 19.68 8.5116 0
C 20.91 9.19253 0
C 20.91 10.6395 0
C 19.68 11.3204 0
C 22.14 8.5116 0
C 23.37 9.19253 0
C 23.37 10.6395 0
C 22.14 11.3204 0
C 24.6 8.5116 0
C 24.6 11.3204 0
C 7.38 12.7674 0
C 8.61 13.4483 0
C 8.61 14.8953 0
C 7.38 15.5762 0
C 9.84 12.7674 0
C 11.07 13.4483 0
C 11.07 14.8953 0
C 9.84 15.5762 0
C 12.3 12.7674 0
C 13.53 13.4483 0
C 13.53 14.8953 0
C 12.3 15.5762 0
C 14.76 12.7674 0
C 15.99 13.4483 0
C 15.99 14.8953 0
C 14.76 15.5762 0
C 17.22 12.7674 0
C 18.45 13.4483 0
C 18.45 14.8953 0
C 17.22 15.5762 0
C 19.68 12.7674 0
C 20.91 13.4483 0
C 20.91 14.8953 0
C 19.68 15.5762 0
C 22.14 12.7674 0
C 23.37 13.4483 0
C 23.37 14.8953 0
C 22.14 15.5762 0
C 24.6 12.7674 0
C 24.6 15.5762 0
C 7.38 17.0232 0
C 9.84 17.0232 0
C 12.3 17.0232 0
C 14.76 17.0232 0
C 17.22 17.0232 0
C 19.68 17.0232 0
C 22.14 17.0232 0
C 24.6 17.0232 0
